
     RDKit          3D

 31 33  0  0  0  0  0  0  0  0999 V2000
   -5.8608   -1.8121   -1.2766 C   0  0  0  0  0  0  0  0  0  0  0  0
   -6.9070   -1.2465   -0.6713 N   0  0  0  0  0  0  0  0  0  0  0  0
   -6.7980   -0.2258    0.1815 C   0  0  0  0  0  0  0  0  0  0  0  0
   -5.5193    0.2724    0.4508 C   0  0  0  0  0  0  0  0  0  0  0  0
   -4.4585   -0.3219   -0.1806 C   0  0  0  0  0  0  0  0  0  0  0  0
   -4.6231   -1.3485   -1.0318 N   0  0  0  0  0  0  0  0  0  0  0  0
   -3.3516    0.3014    0.2154 N   0  0  0  0  0  0  0  0  0  0  0  0
   -3.7214    1.2668    1.0787 C   0  0  0  0  0  0  0  0  0  0  0  0
   -5.0574    1.2519    1.2263 N   0  0  0  0  0  0  0  0  0  0  0  0
   -1.9610    0.0277   -0.1837 C   0  0  0  0  0  0  0  0  0  0  0  0
   -1.3224    1.3954   -0.3510 C   0  0  0  0  0  0  0  0  0  0  0  0
   -1.1714    1.7394    1.1387 C   0  0  0  0  0  0  0  0  0  0  0  0
   -0.7135    0.3773    1.6410 C   0  0  0  0  0  0  0  0  0  0  0  0
   -1.3624   -0.5734    0.9012 O   0  0  0  0  0  0  0  0  0  0  0  0
    0.7655    0.1954    1.4808 C   0  0  0  0  0  0  0  0  0  0  0  0
    1.1623    0.3247    0.1341 O   0  0  0  0  0  0  0  0  0  0  0  0
    2.8259    0.1152   -0.0104 P   0  0  0  0  0  0  0  0  0  0  0  0
    3.4661    0.4149    1.3255 O   0  0  0  0  0  0  0  0  0  0  0  0
    3.4670    1.1168   -1.2328 O   0  0  0  0  0  0  0  0  0  0  0  0
    3.2145   -1.4787   -0.4594 O   0  0  0  0  0  0  0  0  0  0  0  0
    4.7035   -1.8559    0.2673 P   0  0  0  0  0  0  0  0  0  0  0  0
    5.5818   -2.6318   -0.6808 O   0  0  0  0  0  0  0  0  0  0  0  0
    4.3550   -2.8396    1.6023 O   0  0  0  0  0  0  0  0  0  0  0  0
    5.4681   -0.4671    0.8515 O   0  0  0  0  0  0  0  0  0  0  0  0
    6.6956    0.0563   -0.1630 P   0  0  0  0  0  0  0  0  0  0  0  0
    6.9206    1.5541   -0.0654 O   0  0  0  0  0  0  0  0  0  0  0  0
    8.1657   -0.7026    0.2158 O   0  0  0  0  0  0  0  0  0  0  0  0
    6.3242   -0.3131   -1.7768 O   0  0  0  0  0  0  0  0  0  0  0  0
   -0.2479    2.7291    1.3514 O   0  0  0  0  0  0  0  0  0  0  0  0
   -2.1434    2.2921   -0.9987 O   0  0  0  0  0  0  0  0  0  0  0  0
   -7.8965    0.3859    0.8321 N   0  0  0  0  0  0  0  0  0  0  0  0
  1  2  2  0
  2  3  1  0
  3  4  2  0
  4  5  1  0
  5  6  2  0
  5  7  1  0
  7  8  1  0
  8  9  2  0
  7 10  1  0
 10 11  1  0
 11 12  1  0
 12 13  1  0
 13 14  1  0
 13 15  1  0
 15 16  1  0
 16 17  1  0
 17 18  2  0
 17 19  1  0
 17 20  1  0
 20 21  1  0
 21 22  2  0
 21 23  1  0
 21 24  1  0
 24 25  1  0
 25 26  2  0
 25 27  1  0
 25 28  1  0
 12 29  1  0
 11 30  1  0
  3 31  1  0
  6  1  1  0
  9  4  1  0
 14 10  1  0
M  END
